LIG
     RDKit          3D

 54 53  0  0  0  0  0  0  0  0999 V2000
   14.3790   48.7380    8.4640 C   0  0  0  0  0  0  0  0  0  0  0  0
   14.8460   48.5270    9.5880 O   0  0  0  0  0  0  0  0  0  0  0  0
   14.2650   50.2320    8.0390 *   0  0  0  0  0  0  0  0  0  0  0  0
   14.0010   47.9340    7.6080 O   0  0  0  0  0  0  0  0  0  0  0  0
   14.8920   51.2280    9.0100 *   0  0  0  0  0  0  0  0  0  0  0  0
   16.4040   51.3950    8.8210 *   0  0  0  0  0  0  0  0  0  0  0  0
   17.2380   51.2130   10.0960 *   0  0  0  0  0  0  0  0  0  0  0  0
   18.5590   50.4660    9.8880 *   0  0  0  0  0  0  0  0  0  0  0  0
   19.6980   51.0210   10.7460 *   0  0  0  0  0  0  0  0  0  0  0  0
   20.6630   49.9490   11.2770 *   0  0  0  0  0  0  0  0  0  0  0  0
   22.1010   50.2000   10.9000 *   0  0  0  0  0  0  0  0  0  0  0  0
   23.1780   49.5010   11.2140 *   0  0  0  0  0  0  0  0  0  0  0  0
   23.2670   48.2340   12.0330 *   0  0  0  0  0  0  0  0  0  0  0  0
   24.2270   48.3900   13.1890 *   0  0  0  0  0  0  0  0  0  0  0  0
   25.5060   48.7250   13.1590 *   0  0  0  0  0  0  0  0  0  0  0  0
   26.3530   49.0420   11.9520 *   0  0  0  0  0  0  0  0  0  0  0  0
   26.4670   50.5450   11.6470 *   0  0  0  0  0  0  0  0  0  0  0  0
   26.2140   51.0020   10.2010 *   0  0  0  0  0  0  0  0  0  0  0  0
   27.4560   51.4190    9.3890 *   0  0  0  0  0  0  0  0  0  0  0  0
   28.7620   51.5120   10.1830 *   0  0  0  0  0  0  0  0  0  0  0  0
   13.2270   50.4710    7.9420 *   0  0  0  0  0  0  0  0  0  0  0  0
   14.8090   50.3250    7.1220 *   0  0  0  0  0  0  0  0  0  0  0  0
   14.7110   50.8880   10.0080 *   0  0  0  0  0  0  0  0  0  0  0  0
   14.4430   52.1800    8.8180 *   0  0  0  0  0  0  0  0  0  0  0  0
   16.5850   52.3790    8.4430 *   0  0  0  0  0  0  0  0  0  0  0  0
   16.7100   50.6210    8.1490 *   0  0  0  0  0  0  0  0  0  0  0  0
   16.6520   50.6650   10.8040 *   0  0  0  0  0  0  0  0  0  0  0  0
   17.4930   52.1950   10.4360 *   0  0  0  0  0  0  0  0  0  0  0  0
   18.8380   50.5450    8.8580 *   0  0  0  0  0  0  0  0  0  0  0  0
   18.4020   49.4490   10.1810 *   0  0  0  0  0  0  0  0  0  0  0  0
   19.2700   51.5320   11.5830 *   0  0  0  0  0  0  0  0  0  0  0  0
   20.2720   51.6680   10.1160 *   0  0  0  0  0  0  0  0  0  0  0  0
   20.3690   49.0000   10.8790 *   0  0  0  0  0  0  0  0  0  0  0  0
   20.6070   49.9740   12.3450 *   0  0  0  0  0  0  0  0  0  0  0  0
   22.2680   51.0340   10.3150 *   0  0  0  0  0  0  0  0  0  0  0  0
   24.0730   49.8670   10.8540 *   0  0  0  0  0  0  0  0  0  0  0  0
   23.6050   47.4370   11.4050 *   0  0  0  0  0  0  0  0  0  0  0  0
   22.2960   48.0200   12.4290 *   0  0  0  0  0  0  0  0  0  0  0  0
   23.8330   48.2120   14.1260 *   0  0  0  0  0  0  0  0  0  0  0  0
   25.9830   48.7760   14.0730 *   0  0  0  0  0  0  0  0  0  0  0  0
   27.3370   48.6570   12.1210 *   0  0  0  0  0  0  0  0  0  0  0  0
   25.8730   48.5900   11.1090 *   0  0  0  0  0  0  0  0  0  0  0  0
   25.7610   51.0520   12.2710 *   0  0  0  0  0  0  0  0  0  0  0  0
   27.4950   50.7810   11.8290 *   0  0  0  0  0  0  0  0  0  0  0  0
   25.6060   51.9030   10.2840 *   0  0  0  0  0  0  0  0  0  0  0  0
   25.7310   50.1800    9.6720 *   0  0  0  0  0  0  0  0  0  0  0  0
   27.2530   52.4270    9.0290 *   0  0  0  0  0  0  0  0  0  0  0  0
   27.5980   50.6890    8.5920 *   0  0  0  0  0  0  0  0  0  0  0  0
   28.5760   51.2610   11.2060 *   0  0  0  0  0  0  0  0  0  0  0  0
   29.1450   52.5100   10.1250 *   0  0  0  0  0  0  0  0  0  0  0  0
   29.4780   50.8310    9.7730 *   0  0  0  0  0  0  0  0  0  0  0  0
   13.3670   48.7828    8.8929 H   0  0  0  0  0  0  0  0  0  0  0  0
   14.1968   48.8203   10.2755 H   0  0  0  0  0  0  0  0  0  0  0  0
   13.6243   47.1329    8.0512 H   0  0  0  0  0  0  0  0  0  0  0  0
  1  2  1  0
  1  3  1  0
  1  4  1  0
  3  5  1  0
  3 21  1  0
  3 22  1  0
  5  6  1  0
  5 23  1  0
  5 24  1  0
  6  7  1  0
  6 25  1  0
  6 26  1  0
  7  8  1  0
  7 27  1  0
  7 28  1  0
  8  9  1  0
  8 29  1  0
  8 30  1  0
  9 10  1  0
  9 31  1  0
  9 32  1  0
 10 11  1  0
 10 33  1  0
 10 34  1  0
 11 12  2  0
 11 35  1  0
 12 13  1  0
 12 36  1  0
 13 14  1  0
 13 37  1  0
 13 38  1  0
 14 15  2  0
 14 39  1  0
 15 16  1  0
 15 40  1  0
 16 17  1  0
 16 41  1  0
 16 42  1  0
 17 18  1  0
 17 43  1  0
 17 44  1  0
 18 19  1  0
 18 45  1  0
 18 46  1  0
 19 20  1  0
 19 47  1  0
 19 48  1  0
 20 49  1  0
 20 50  1  0
 20 51  1  0
  1 52  1  0
  2 53  1  0
  4 54  1  0
V    3 *
V    5 *
V    6 *
V    7 *
V    8 *
V    9 *
V   10 *
V   11 *
V   12 *
V   13 *
V   14 *
V   15 *
V   16 *
V   17 *
V   18 *
V   19 *
V   20 *
V   21 *
V   22 *
V   23 *
V   24 *
V   25 *
V   26 *
V   27 *
V   28 *
V   29 *
V   30 *
V   31 *
V   32 *
V   33 *
V   34 *
V   35 *
V   36 *
V   37 *
V   38 *
V   39 *
V   40 *
V   41 *
V   42 *
V   43 *
V   44 *
V   45 *
V   46 *
V   47 *
V   48 *
V   49 *
V   50 *
V   51 *
M  END
