@<TRIPOS>MOLECULE
AN1
   14    13     1     0     0
SMALL
RESP Charge
 
 
@<TRIPOS>ATOM
      1 N          20.3790   40.4220    8.4850 N         1 AN1     -0.415700
      2 H          20.8860   39.5670    8.3080 H         1 AN1      0.359541
      3 CA         20.8710   41.6790    7.9050 CX        1 AN1      0.014300
      4 HA         20.3720   42.5100    8.4050 H1        1 AN1      0.074469
      5 CB         22.3910   41.8100    8.1230 2C        1 AN1      0.114462
      6 HB2        22.9190   41.2540    7.3480 HC        1 AN1     -0.012159
      7 HB3        22.6610   41.3700    9.0840 HC        1 AN1     -0.012159
      8 CG         22.8690   43.2460    8.0990 C         1 AN1      0.270921
      9 OD1        23.6370   43.6050    8.9670 Y4        1 AN1     -0.156543
     10 ND2        22.4710   44.0480    7.1690 N         1 AN1     -0.759140
     11 HD21       22.7900   44.9980    7.1570 H         1 AN1      0.405540
     12 HD22       21.8450   43.7230    6.4620 H         1 AN1      0.391048
     13 C          20.5550   41.8340    6.4300 C         1 AN1      0.597300
     14 O          20.1040   42.9140    6.0230 O         1 AN1     -0.567900
@<TRIPOS>BOND
     1    1    2 1
     2    1    3 1
     3    3    4 1
     4    3    5 1
     5    3   13 1
     6    5    6 1
     7    5    7 1
     8    5    8 1
     9    8    9 1
    10    8   10 1
    11   10   11 1
    12   10   12 1
    13   13   14 1
@<TRIPOS>SUBSTRUCTURE
     1 AN1         1 TEMP              0 ****  ****    0 ROOT
