@<TRIPOS>MOLECULE
HD1
   17    17     1     0     0
SMALL
RESP Charge
 
 
@<TRIPOS>ATOM
      1 N          19.0730   42.0560   15.5610 N         1 HD1     -0.415700
      2 H          18.3210   42.6750   15.8290 H         1 HD1      0.276235
      3 CA         20.1750   42.5800   14.7690 CX        1 HD1      0.018800
      4 HA         20.6780   41.7590   14.2580 H1        1 HD1      0.126409
      5 CB         19.6510   43.4870   13.6420 CT        1 HD1     -0.029378
      6 HB2        19.2770   44.4180   14.0680 HC        1 HD1      0.049227
      7 HB3        18.8150   42.9980   13.1400 HC        1 HD1      0.049227
      8 CG         20.6660   43.8280   12.6160 CC        1 HD1      0.091562
      9 ND1        20.4160   44.7420   11.6120 NA        1 HD1     -0.264521
     10 HD1        19.5500   45.2460   11.4890 H         1 HD1      0.345162
     11 CE1        21.4910   44.8450   10.8480 CR        1 HD1      0.017767
     12 HE1        21.5860   45.4740    9.9630 H5        1 HD1      0.166161
     13 NE2        22.4380   44.0570   11.3330 Y1        1 HD1     -0.046488
     14 CD2        21.9460   43.4140   12.4520 CV        1 HD1     -0.214761
     15 HD2        22.4830   42.6990   13.0760 H4        1 HD1      0.112850
     16 C          21.2130   43.2810   15.6840 C         1 HD1      0.597300
     17 O          22.3240   42.7740   15.8600 O         1 HD1     -0.567900
@<TRIPOS>BOND
     1    1    2 1
     2    1    3 1
     3    3    4 1
     4    3    5 1
     5    3   16 1
     6    5    6 1
     7    5    7 1
     8    5    8 1
     9    8    9 1
    10    8   14 1
    11    9   10 1
    12    9   11 1
    13   11   12 1
    14   11   13 1
    15   13   14 1
    16   14   15 1
    17   16   17 1
@<TRIPOS>SUBSTRUCTURE
     1 HD1         1 TEMP              0 ****  ****    0 ROOT
