@<TRIPOS>MOLECULE
HD2
   17    17     1     0     0
SMALL
RESP Charge
 
 
@<TRIPOS>ATOM
      1 N          25.8140   42.5040   16.5480 N         1 HD2     -0.415700
      2 H          24.9780   42.6890   16.0120 H         1 HD2      0.321622
      3 CA         26.7830   43.5910   16.7620 CX        1 HD2      0.018800
      4 HA         27.6720   43.4100   16.1590 H1        1 HD2      0.069035
      5 CB         26.1800   44.9490   16.2760 CT        1 HD2     -0.212645
      6 HB2        26.8180   45.7690   16.6050 HC        1 HD2      0.065163
      7 HB3        25.1990   45.0950   16.7300 HC        1 HD2      0.065163
      8 CG         26.0190   45.0610   14.7940 CC        1 HD2      0.365733
      9 ND1        26.9300   45.7190   13.9910 NA        1 HD2     -0.371166
     10 HD1        27.7680   46.1720   14.3270 H         1 HD2      0.367784
     11 CE1        26.5260   45.6580   12.7160 CR        1 HD2      0.036113
     12 HE1        27.0350   46.1080   11.8640 H5        1 HD2      0.194588
     13 NE2        25.4140   44.9640   12.6720 Y2        1 HD2     -0.015735
     14 CD2        25.0880   44.5630   13.9580 CV        1 HD2     -0.476526
     15 HD2        24.2200   43.9720   14.2510 H4        1 HD2      0.276956
     16 C          27.2780   43.7180   18.2000 C         1 HD2      0.597300
     17 O          28.4910   43.6590   18.4920 O         1 HD2     -0.567900
@<TRIPOS>BOND
     1    1    2 1
     2    1    3 1
     3    3    4 1
     4    3    5 1
     5    3   16 1
     6    5    6 1
     7    5    7 1
     8    5    8 1
     9    8    9 1
    10    8   14 1
    11    9   10 1
    12    9   11 1
    13   11   12 1
    14   11   13 1
    15   13   14 1
    16   14   15 1
    17   16   17 1
@<TRIPOS>SUBSTRUCTURE
     1 HD2         1 TEMP              0 ****  ****    0 ROOT
