@<TRIPOS>MOLECULE
HD3
   17    17     1     0     0
SMALL
RESP Charge
 
 
@<TRIPOS>ATOM
      1 N          23.9210   36.6050   11.6850 N         1 HD3     -0.415700
      2 H          24.7770   36.1960   12.0310 H         1 HD3      0.299922
      3 CA         23.9310   37.9810   11.2240 CX        1 HD3      0.018800
      4 HA         23.2210   38.5660   11.8080 H1        1 HD3      0.154089
      5 CB         25.3000   38.6140   11.4320 CT        1 HD3     -0.322711
      6 HB2        26.0610   38.0000   10.9510 HC        1 HD3      0.137453
      7 HB3        25.5290   38.6450   12.4980 HC        1 HD3      0.137453
      8 CG         25.3760   40.0080   10.8770 CC        1 HD3      0.159569
      9 ND1        25.9490   40.2790    9.6540 NA        1 HD3     -0.235078
     10 HD1        26.3880   39.5900    9.0600 H         1 HD3      0.319252
     11 CE1        25.8290   41.5870    9.3880 CR        1 HD3      0.070329
     12 HE1        26.1850   42.0900    8.4890 H5        1 HD3      0.148973
     13 NE2        25.2010   42.1940   10.3980 Y3        1 HD3     -0.186092
     14 CD2        24.9100   41.1920   11.3420 CV        1 HD3     -0.248848
     15 HD2        24.4000   41.3300   12.2960 H4        1 HD3      0.186532
     16 C          23.5070   38.0730    9.7540 C         1 HD3      0.597300
     17 O          22.7310   39.0010    9.4350 O         1 HD3     -0.567900
@<TRIPOS>BOND
     1    1    2 1
     2    1    3 1
     3    3    4 1
     4    3    5 1
     5    3   16 1
     6    5    6 1
     7    5    7 1
     8    5    8 1
     9    8    9 1
    10    8   14 1
    11    9   10 1
    12    9   11 1
    13   11   12 1
    14   11   13 1
    15   13   14 1
    16   14   15 1
    17   16   17 1
@<TRIPOS>SUBSTRUCTURE
     1 HD3         1 TEMP              0 ****  ****    0 ROOT
