@<TRIPOS>MOLECULE
IE1
   20    19     1     0     0
SMALL
RESP Charge
 
 
@<TRIPOS>ATOM
      1 N          28.8830   44.8440    8.3800 N         1 IE1     -0.497658
      2 H          28.4690   44.0860    8.9040 H         1 IE1      0.300650
      3 CA         28.0440   45.9630    7.9660 CX        1 IE1     -0.076361
      4 HA         28.5980   46.8870    8.1230 H1        1 IE1      0.132717
      5 CB         27.7000   45.8700    6.4340 3C        1 IE1      0.083327
      6 HB         28.6210   45.7770    5.8590 HC        1 IE1      0.085017
      7 CG2        26.7980   44.6230    6.1680 CT        1 IE1     -0.351600
      8 HG21       26.5630   44.5640    5.1060 HC        1 IE1      0.076973
      9 HG22       27.3260   43.7210    6.4730 HC        1 IE1      0.076973
     10 HG23       25.8740   44.7130    6.7400 HC        1 IE1      0.076973
     11 CG1        27.0940   47.1900    5.9310 2C        1 IE1      0.039204
     12 HG12       26.0890   47.3070    6.3360 HC        1 IE1      0.008334
     13 HG13       27.0060   47.1590    4.8460 HC        1 IE1      0.008334
     14 CD1        27.8570   48.4140    6.2810 CT        1 IE1     -0.214347
     15 HD11       27.3450   49.2890    5.8800 HC        1 IE1      0.054106
     16 HD12       27.9280   48.5010    7.3660 HC        1 IE1      0.054106
     17 HD13       28.8570   48.3530    5.8550 HC        1 IE1      0.054106
     18 C          26.7830   45.9110    8.8570 C         1 IE1      0.700250
     19 O          26.1020   46.9720    8.9720 O2        1 IE1     -0.464707
     20 OXT        26.4810   44.8900    9.4100 Y5        1 IE1     -0.679743
@<TRIPOS>BOND
     1    1    2 1
     2    1    3 1
     3    3    4 1
     4    3    5 1
     5    3   18 1
     6    5    6 1
     7    5    7 1
     8    5   11 1
     9    7    8 1
    10    7    9 1
    11    7   10 1
    12   11   12 1
    13   11   13 1
    14   11   14 1
    15   14   15 1
    16   14   16 1
    17   14   17 1
    18   18   19 1
    19   18   20 1
@<TRIPOS>SUBSTRUCTURE
     1 IE1         1 TEMP              0 ****  ****    0 ROOT
