@<TRIPOS>MOLECULE
LIG
   51    50     1     0     0
SMALL
bcc


@<TRIPOS>ATOM
      1 C           14.3790    48.7380     8.4640 c        842 LIG       0.907600
      2 O           14.8460    48.5270     9.5880 o        842 LIG      -0.853800
      3 C1          14.2650    50.2320     8.0390 c3       842 LIG      -0.196400
      4 O1          14.0010    47.9340     7.6080 o        842 LIG      -0.853800
      5 C2          14.8920    51.2280     9.0100 c3       842 LIG      -0.046400
      6 C3          16.4040    51.3950     8.8210 c3       842 LIG      -0.095400
      7 C4          17.2380    51.2130    10.0960 c3       842 LIG      -0.073400
      8 C5          18.5590    50.4660     9.8880 c3       842 LIG      -0.080400
      9 C6          19.6980    51.0210    10.7460 c3       842 LIG      -0.077400
     10 C7          20.6630    49.9490    11.2770 c3       842 LIG      -0.052200
     11 C8          22.1010    50.2000    10.9000 c2       842 LIG      -0.153200
     12 C9          23.1780    49.5010    11.2140 c2       842 LIG      -0.193200
     13 C10         23.2670    48.2340    12.0330 c3       842 LIG      -0.018000
     14 C11         24.2270    48.3900    13.1890 c2       842 LIG      -0.159200
     15 C12         25.5060    48.7250    13.1590 c2       842 LIG      -0.187200
     16 C13         26.3530    49.0420    11.9520 c3       842 LIG      -0.048200
     17 C14         26.4670    50.5450    11.6470 c3       842 LIG      -0.075400
     18 C15         26.2140    51.0020    10.2010 c3       842 LIG      -0.078400
     19 C16         27.4560    51.4190     9.3890 c3       842 LIG      -0.080400
     20 C17         28.7620    51.5120    10.1830 c3       842 LIG      -0.091100
     21 H           13.2270    50.4710     7.9420 hc       842 LIG       0.020200
     22 H1          14.8090    50.3250     7.1220 hc       842 LIG       0.020200
     23 H2          14.7110    50.8880    10.0080 hc       842 LIG       0.012200
     24 H3          14.4430    52.1800     8.8180 hc       842 LIG       0.012200
     25 H4          16.5850    52.3790     8.4430 hc       842 LIG       0.062200
     26 H5          16.7100    50.6210     8.1490 hc       842 LIG       0.062200
     27 H6          16.6520    50.6650    10.8040 hc       842 LIG       0.026200
     28 H7          17.4930    52.1950    10.4360 hc       842 LIG       0.026200
     29 H8          18.8380    50.5450     8.8580 hc       842 LIG       0.041200
     30 H9          18.4020    49.4490    10.1810 hc       842 LIG       0.041200
     31 H10         19.2700    51.5320    11.5830 hc       842 LIG       0.036200
     32 H11         20.2720    51.6680    10.1160 hc       842 LIG       0.036200
     33 H12         20.3690    49.0000    10.8790 hc       842 LIG       0.044200
     34 H13         20.6070    49.9740    12.3450 hc       842 LIG       0.044200
     35 H14         22.2680    51.0340    10.3150 ha       842 LIG       0.128000
     36 H15         24.0730    49.8670    10.8540 ha       842 LIG       0.117000
     37 H16         23.6050    47.4370    11.4050 hc       842 LIG       0.056200
     38 H17         22.2960    48.0200    12.4290 hc       842 LIG       0.056200
     39 H18         23.8330    48.2120    14.1260 ha       842 LIG       0.120000
     40 H19         25.9830    48.7760    14.0730 ha       842 LIG       0.116000
     41 H20         27.3370    48.6570    12.1210 hc       842 LIG       0.049200
     42 H21         25.8730    48.5900    11.1090 hc       842 LIG       0.049200
     43 H22         25.7610    51.0520    12.2710 hc       842 LIG       0.038200
     44 H23         27.4950    50.7810    11.8290 hc       842 LIG       0.038200
     45 H24         25.6060    51.9030    10.2840 hc       842 LIG       0.038700
     46 H25         25.7310    50.1800     9.6720 hc       842 LIG       0.038700
     47 H26         27.2530    52.4270     9.0290 hc       842 LIG       0.040200
     48 H27         27.5980    50.6890     8.5920 hc       842 LIG       0.040200
     49 H28         28.5760    51.2610    11.2060 hc       842 LIG       0.030367
     50 H29         29.1450    52.5100    10.1250 hc       842 LIG       0.030367
     51 H30         29.4780    50.8310     9.7730 hc       842 LIG       0.030367
@<TRIPOS>BOND
     1     1     2 1   
     2     1     3 1   
     3     1     4 1   
     4     3     5 1   
     5     3    21 1   
     6     3    22 1   
     7     5     6 1   
     8     5    23 1   
     9     5    24 1   
    10     6     7 1   
    11     6    25 1   
    12     6    26 1   
    13     7     8 1   
    14     7    27 1   
    15     7    28 1   
    16     8     9 1   
    17     8    29 1   
    18     8    30 1   
    19     9    10 1   
    20     9    31 1   
    21     9    32 1   
    22    10    11 1   
    23    10    33 1   
    24    10    34 1   
    25    11    12 2   
    26    11    35 1   
    27    12    13 1   
    28    12    36 1   
    29    13    14 1   
    30    13    37 1   
    31    13    38 1   
    32    14    15 2   
    33    14    39 1   
    34    15    16 1   
    35    15    40 1   
    36    16    17 1   
    37    16    41 1   
    38    16    42 1   
    39    17    18 1   
    40    17    43 1   
    41    17    44 1   
    42    18    19 1   
    43    18    45 1   
    44    18    46 1   
    45    19    20 1   
    46    19    47 1   
    47    19    48 1   
    48    20    49 1   
    49    20    50 1   
    50    20    51 1   
@<TRIPOS>SUBSTRUCTURE
     1 LIG         1 TEMP              0 ****  ****    0 ROOT
